<routes>
  <route id="route0" color="1,1,0" edges="EC CW"/>
  <vehicle color="1,1,1" depart="10" id="vehicle.1" route="route0"/>
</routes>
